interface/data/d_kundur.m
% 03/16/23 File data originated from Matpower data file
% 

Bus.con = [ ...
      1       20        1   0.5703    1    1;
      2       20        1   0.3779    1    1;
      3       20        1   0.1957    2    1;
      4       20        1   0.3777    2    1;
      5      230   0.9834   0.4826    1    1;
      6      230   0.9691   0.2935    1    1;
      7      230   0.9562   0.1425    1    1;
      8      230    0.954 -0.03717    2    1;
      9      230   0.9686   0.1113    2    1;
     10      230   0.9838   0.2933    2    1;
   ];

SW.con = [ ...
      1      900       20        1   0.5703   0.6667        0      1.1      0.9   0.8287 1 1  1;
   ];

PV.con = [ ...
   2      900       20   0.7778        1   0.6667  -0.6667      1.1      0.9 1  1;
   3      900       20   0.7778        1   0.6667  -0.6667      1.1      0.9 1  1;
   4      900       20   0.7778        1   0.6667  -0.6667      1.1      0.9 1  1;
   ];

PQ.con = [ ...
   7 100      230    11.59   -0.735      1.1      0.9 0 1;
   8 100      230    15.75   -0.899      1.1      0.9 0 1;
   5 100      230        0        0      1.1      0.9 0 1;
   6 100      230        0        0      1.1      0.9 0 1;
   9 100      230        0        0      1.1      0.9 0 1;
  10 100      230        0        0      1.1      0.9 0 1;
   ];

Line.con = [ ...
   5    6 100      230 60 0         0    0.005     0.05    0.075        0        0        0        0        0  1;
   5    6 100      230 60 0         0  0.00501  0.05001    0.075        0        0        0        0        0  1;
   6    7 100      230 60 0         0    0.002     0.02     0.03        0        0        0        0        0  1;
   6    7 100      230 60 0         0  0.00201  0.02001     0.03        0        0        0        0        0  1;
   7    8 100      230 60 0         0  0.02201     0.22     0.33        0        0        0        0        0  1;
   7    8 100      230 60 0         0  0.02202     0.22     0.33        0        0        0        0        0  1;
   7    8 100      230 60 0         0    0.022     0.22     0.33        0        0        0        0        0  1;
   8    9 100      230 60 0         0    0.002     0.02     0.03        0        0        0        0        0  1;
   8    9 100      230 60 0         0  0.00201  0.02001     0.03        0        0        0        0        0  1;
   9   10 100      230 60 0         0    0.005     0.05    0.075        0        0        0        0        0  1;
   9   10 100      230 60 0         0  0.00501  0.05001    0.075        0        0        0        0        0  1;
   1    5 100       20 60 0   0.08696    0.001    0.012        0        1        0        0        0        0  1;
   2    6 100       20 60 0   0.08696    0.001    0.012        0        1        0        0        0        0  1;
   3    9 100       20 60 0   0.08696    0.001    0.012        0        1        0        0        0        0  1;
   4   10 100       20 60 0   0.08696    0.001    0.012        0        1        0        0        0        0  1;
   ];

Bus.names = {...
      '1'; '2'; '12'; '11'; '101'; 
      '102'; '3'; '13'; '112'; '111'};

